Circuit: * D:\Projects\Electronic-Load\SIMULATION\LTSpice\Bypass MOSFET.asc


Date: Sat May 05 17:03:07 2018
Total elapsed time: 1.871 seconds.

tnom = 27
temp = 27
method = trap
totiter = 131070
traniter = 0
tranpoints = 0
accept = 0
rejected = 0
matrix size = 23
fillins = 4
solver = Normal
Matrix Compiler1: 1.59 KB object code size  0.5/0.3/[0.2]
Matrix Compiler2: 1.89 KB object code size  0.2/0.3/[0.2]

