Circuit: * D:\Projects\Electronic-Load\SIMULATION\LTSpice\Draft1.asc


Date: Sun May 06 19:18:42 2018
Total elapsed time: 0.047 seconds.

tnom = 27
temp = 27
method = trap
totiter = 559
traniter = 0
tranpoints = 0
accept = 0
rejected = 0
matrix size = 12
fillins = 0
solver = Normal
Matrix Compiler1:      30 opcodes  0.1/[0.1]/0.1
Matrix Compiler2: 832 bytes object code size  0.1/0.1/[0.1]

